<?xml version="1.0" encoding="UTF-8"?>

<!-- generated on Sen 04 Jun 2018 11:47:48  +07 by SUMO gui Version 0.32.0
<?xml version="1.0" encoding="UTF-8"?>

<configuration xmlns:xsi="http://www.w3.org/2001/XMLSchema-instance" xsi:noNamespaceSchemaLocation="http://sumo.dlr.de/xsd/sumoConfiguration.xsd">

    <input>
        <net-file value="/home/ode/Documents/TA/cross.net.xml"/>
        <route-files value="/home/ode/Documents/TA/cross.rou.xml"/>
        <additional-files value="/home/ode/Documents/TA/cross.det.xml"/>
    </input>

    <time>
        <begin value="0"/>
    </time>

    <report>
        <verbose value="true"/>
        <no-step-log value="true"/>
    </report>

</configuration>
